@<TRIPOS>MOLECULE
EBS
 25 27 0 0 0
SMALL
USER_CHARGES

@<TRIPOS>ATOM
      1 Se1        -0.3870   -1.4890   -0.2000 se      1  EBS1        0.0567
      2 N2          0.4850    0.1370    0.0250 n       1  EBS1       -0.5994
      3 C3         -0.3330    1.2440    0.1630 c       1  EBS1        0.8280
      4 O4          0.0690    2.3770    0.3120 o       1  EBS1       -0.6135
      5 C5         -1.9950   -0.5170   -0.0680 ca      1  EBS1        0.0520
      6 C6         -1.7520    0.8360    0.1100 ca      1  EBS1       -0.0685
      7 C7         -2.8130    1.7240    0.2310 ca      1  EBS1       -0.1698
      8 C8         -4.1060    1.2430    0.1680 ca      1  EBS1       -0.0648
      9 C9         -4.3380   -0.1200   -0.0130 ca      1  EBS1       -0.1377
     10 C10        -3.2890   -1.0150   -0.1320 ca      1  EBS1       -0.2287
     11 C11         1.9010    0.1780    0.0300 ca      1  EBS1        0.3433
     12 C12         2.6189   -0.7552   -0.7096 ca      1  EBS1       -0.1208
     13 C13         4.0039   -0.7043   -0.7334 ca      1  EBS1       -0.2178
     14 C14         4.6787    0.2643   -0.0076 ca      1  EBS1       -0.1089
     15 C15         3.9582    1.1862    0.7367 ca      1  EBS1       -0.2178
     16 C16         2.5745    1.1557    0.7551 ca      1  EBS1       -0.1208
     17 H17        -2.5990    2.7760    0.3720 ha      1  EBS1        0.1555
     18 H18        -4.9430    1.9220    0.2600 ha      1  EBS1        0.1241
     19 H19        -5.3550   -0.4890   -0.0610 ha      1  EBS1        0.1433
     20 H20        -3.4810   -2.0710   -0.2710 ha      1  EBS1        0.2176
     21 H21         2.0951   -1.5302   -1.2559 ha      1  EBS1        0.1424
     22 H22         4.5538   -1.4330   -1.3133 ha      1  EBS1        0.1624
     23 H23         5.7601    0.2994   -0.0210 ha      1  EBS1        0.1384
     24 H24         4.4779    1.9459    1.3078 ha      1  EBS1        0.1624
     25 H25         2.0149    1.8721    1.3369 ha      1  EBS1        0.1424
@<TRIPOS>BOND
     1     1     2    1
     2     1     5    1
     3     2     3    1
     4     2    11    1
     5     3     4    2
     6     3     6    1
     7     5     6   ar
     8     5    10   ar
     9     6     7   ar
    10     7     8   ar
    11     7    17    1
    12     8     9   ar
    13     8    18    1
    14     9    10   ar
    15     9    19    1
    16    10    20    1
    17    11    12   ar
    18    11    16   ar
    19    12    13   ar
    20    12    21    1
    21    13    14   ar
    22    13    22    1
    23    14    15   ar
    24    14    23    1
    25    15    16   ar
    26    15    24    1
    27    16    25    1
